/*--------------------------------*- C++ -*----------------------------------*\
| =========                 |                                                 |
| \\      /  F ield         | OpenFOAM: The Open Source CFD Toolbox           |
|  \\    /   O peration     | Version:  1.6                                   |
|   \\  /    A nd           | Web:      http://www.OpenFOAM.org               |
|    \\/     M anipulation  |                                                 |
\*---------------------------------------------------------------------------*/
FoamFile
{
    version     2.0;
    format      ascii;
    class       dictionary;
    object      macroDict;
}
// * * * * * * * * * * * * * * * * * * * * * * * * * * * * * * * * * * * * * //

length          680e-10;
hEnd            34e-10;
hNeck           20.4e-10;

rho             1437;

F               0.487e-12;

nSolverCalls    5;
numberOfSamplesToAverageOver  1000;

acceptableError 0.04;
tolerance 0.04;

// ************************************************************************* //
