/*--------------------------------*- C++ -*----------------------------------*\
| =========                 |                                                 |
| \\      /  F ield         | OpenFOAM: The Open Source CFD Toolbox           |
|  \\    /   O peration     | Version:  1.6                                   |
|   \\  /    A nd           | Web:      http://www.OpenFOAM.org               |
|    \\/     M anipulation  |                                                 |
\*---------------------------------------------------------------------------*/
FoamFile
{
    version     2.0;
    format      ascii;
    class       dictionary;
    object      microDict;
}
// * * * * * * * * * * * * * * * * * * * * * * * * * * * * * * * * * * * * * //

molMass                       6.6335e-26;

lengthOfRegion                80e-10;
widthOfRegion                 54.4e-10;

microTimeStep                 0.002;

numberOfEquilibrationSteps    500000;
numberOfStepsBetweenSamples   1000;

// ************************************************************************* //
